N3R
     RDKit          3D

 44 46  0  0  0  0  0  0  0  0999 V2000
    4.5657   -0.2555    1.7302 C   0  0  0  0  0  0  0  0  0  0  0  0
   -5.9105   -1.3616    0.9718 C   0  0  0  0  0  0  0  0  0  0  0  0
   -4.7048   -1.5229    0.3118 C   0  0  0  0  0  0  0  0  0  0  0  0
   -3.8872   -0.4117    0.0266 C   0  0  0  0  0  0  0  0  0  0  0  0
   -2.2612   -1.8764   -1.0803 C   0  0  0  0  0  0  0  0  0  0  0  0
   -0.9195   -1.7974   -1.7461 C   0  0  0  0  0  0  0  0  0  0  0  0
    2.4720   -0.9384   -0.2177 C   0  0  0  0  0  0  0  0  0  0  0  0
    4.0033    0.7600    0.8002 C   0  0  0  0  0  0  0  0  0  0  0  0
    4.0318    3.0528    0.0488 C   0  0  0  0  0  0  0  0  0  0  0  0
    2.5113    1.4754   -0.9755 C   0  0  0  0  0  0  0  0  0  0  0  0
    1.5352    1.2477   -1.8875 F   0  0  0  0  0  0  0  0  0  0  0  0
    3.0332    2.7644   -0.8776 C   0  0  0  0  0  0  0  0  0  0  0  0
    4.5141    2.0562    0.8859 C   0  0  0  0  0  0  0  0  0  0  0  0
    2.9960    0.4492   -0.1387 C   0  0  0  0  0  0  0  0  0  0  0  0
    3.9737   -1.6014    1.5824 C   0  0  0  0  0  0  0  0  0  0  0  0
    4.3950   -2.5149    2.3292 O   0  0  0  0  0  0  0  0  0  0  0  0
    2.9299   -1.8896    0.6010 C   0  0  0  0  0  0  0  0  0  0  0  0
    1.4425   -1.2951   -1.1904 C   0  0  0  0  0  0  0  0  0  0  0  0
    1.7503   -1.4630   -2.3983 O   0  0  0  0  0  0  0  0  0  0  0  0
    0.0915   -1.4028   -0.7794 N   0  0  0  0  0  0  0  0  0  0  0  0
   -2.6736   -0.5841   -0.6393 O   0  0  0  0  0  0  0  0  0  0  0  0
   -4.3087    0.8707    0.4171 C   0  0  0  0  0  0  0  0  0  0  0  0
   -3.5127    1.9851    0.1401 O   0  0  0  0  0  0  0  0  0  0  0  0
   -3.8945    3.3072    0.5111 C   0  0  0  0  0  0  0  0  0  0  0  0
   -6.3275   -0.0963    1.3576 C   0  0  0  0  0  0  0  0  0  0  0  0
   -5.5383    1.0135    1.0849 C   0  0  0  0  0  0  0  0  0  0  0  0
    5.6612   -0.3335    1.5573 H   0  0  0  0  0  0  0  0  0  0  0  0
    4.4034    0.0857    2.7760 H   0  0  0  0  0  0  0  0  0  0  0  0
   -6.5309   -2.2227    1.1857 H   0  0  0  0  0  0  0  0  0  0  0  0
   -4.4375   -2.5309    0.0312 H   0  0  0  0  0  0  0  0  0  0  0  0
   -2.1862   -2.5765   -0.2183 H   0  0  0  0  0  0  0  0  0  0  0  0
   -2.9937   -2.2713   -1.8187 H   0  0  0  0  0  0  0  0  0  0  0  0
   -0.6627   -2.7949   -2.1656 H   0  0  0  0  0  0  0  0  0  0  0  0
   -0.9594   -1.0565   -2.5746 H   0  0  0  0  0  0  0  0  0  0  0  0
    4.4305    4.0567    0.1181 H   0  0  0  0  0  0  0  0  0  0  0  0
    2.6596    3.5485   -1.5238 H   0  0  0  0  0  0  0  0  0  0  0  0
    5.2891    2.2984    1.6037 H   0  0  0  0  0  0  0  0  0  0  0  0
    2.5382   -2.8993    0.5390 H   0  0  0  0  0  0  0  0  0  0  0  0
   -0.1539   -1.2159    0.2206 H   0  0  0  0  0  0  0  0  0  0  0  0
   -3.9952    3.3857    1.6146 H   0  0  0  0  0  0  0  0  0  0  0  0
   -3.1041    4.0134    0.1842 H   0  0  0  0  0  0  0  0  0  0  0  0
   -4.8435    3.5914    0.0087 H   0  0  0  0  0  0  0  0  0  0  0  0
   -7.2719    0.0258    1.8725 H   0  0  0  0  0  0  0  0  0  0  0  0
   -5.9059    1.9780    1.4048 H   0  0  0  0  0  0  0  0  0  0  0  0
  1  8  1  0
  2 25  2  0
  3  2  1  0
  3  4  2  0
  4 22  1  0
  6  5  1  0
  7 14  1  0
  7 18  1  0
  8 13  1  0
  8 14  2  0
  9 12  1  0
 10 12  2  0
 10 11  1  0
 13  9  2  0
 14 10  1  0
 15  1  1  0
 15 17  1  0
 16 15  2  0
 17  7  2  0
 18 19  2  0
 18 20  1  0
 20  6  1  0
 21  4  1  0
 21  5  1  0
 22 26  2  0
 22 23  1  0
 23 24  1  0
 25 26  1  0
  1 27  1  0
  1 28  1  0
  2 29  1  0
  3 30  1  0
  5 31  1  0
  5 32  1  0
  6 33  1  0
  6 34  1  0
  9 35  1  0
 12 36  1  0
 13 37  1  0
 17 38  1  0
 20 39  1  0
 24 40  1  0
 24 41  1  0
 24 42  1  0
 25 43  1  0
 26 44  1  0
M  END
