N3R
     RDKit          3D

 44 46  0  0  0  0  0  0  0  0999 V2000
    3.1096    1.2569    2.0621 N   0  0  0  0  0  0  0  0  0  0  0  0
   -5.7619   -0.8569    0.1359 C   0  0  0  0  0  0  0  0  0  0  0  0
   -4.7995   -1.0844   -0.8438 C   0  0  0  0  0  0  0  0  0  0  0  0
   -3.4754   -0.7078   -0.6109 C   0  0  0  0  0  0  0  0  0  0  0  0
   -2.0387   -2.2657   -1.5298 C   0  0  0  0  0  0  0  0  0  0  0  0
   -0.5480   -2.2238   -1.8560 C   0  0  0  0  0  0  0  0  0  0  0  0
    2.1109   -0.4986    0.1474 C   0  0  0  0  0  0  0  0  0  0  0  0
    2.6450    1.7977    0.8563 C   0  0  0  0  0  0  0  0  0  0  0  0
    2.2484    3.7180   -0.5361 C   0  0  0  0  0  0  0  0  0  0  0  0
    1.7090    1.5194   -1.3366 C   0  0  0  0  0  0  0  0  0  0  0  0
    1.2392    0.7591   -2.3353 F   0  0  0  0  0  0  0  0  0  0  0  0
    1.7561    2.8985   -1.5429 C   0  0  0  0  0  0  0  0  0  0  0  0
    2.6963    3.1799    0.6648 C   0  0  0  0  0  0  0  0  0  0  0  0
    2.1402    0.9435   -0.1365 C   0  0  0  0  0  0  0  0  0  0  0  0
    3.1197   -0.0810    2.3431 C   0  0  0  0  0  0  0  0  0  0  0  0
    3.5332   -0.5181    3.4104 O   0  0  0  0  0  0  0  0  0  0  0  0
    2.5835   -0.9839    1.3065 C   0  0  0  0  0  0  0  0  0  0  0  0
    1.5449   -1.5209   -0.7641 C   0  0  0  0  0  0  0  0  0  0  0  0
    2.2539   -2.3478   -1.3227 O   0  0  0  0  0  0  0  0  0  0  0  0
    0.1798   -1.4595   -0.8607 N   0  0  0  0  0  0  0  0  0  0  0  0
   -2.5504   -0.9232   -1.6007 O   0  0  0  0  0  0  0  0  0  0  0  0
   -3.0974   -0.0664    0.5786 C   0  0  0  0  0  0  0  0  0  0  0  0
   -1.7729    0.2756    0.6961 O   0  0  0  0  0  0  0  0  0  0  0  0
   -1.4303    1.1217    1.7898 C   0  0  0  0  0  0  0  0  0  0  0  0
   -5.3982   -0.2434    1.3342 C   0  0  0  0  0  0  0  0  0  0  0  0
   -4.0733    0.1538    1.5548 C   0  0  0  0  0  0  0  0  0  0  0  0
    3.4875    1.8590    2.7823 H   0  0  0  0  0  0  0  0  0  0  0  0
   -6.7931   -1.1549   -0.0334 H   0  0  0  0  0  0  0  0  0  0  0  0
   -5.0779   -1.5483   -1.7852 H   0  0  0  0  0  0  0  0  0  0  0  0
   -2.5661   -2.8712   -2.2757 H   0  0  0  0  0  0  0  0  0  0  0  0
   -2.1864   -2.7184   -0.5395 H   0  0  0  0  0  0  0  0  0  0  0  0
   -0.1329   -3.2355   -1.9071 H   0  0  0  0  0  0  0  0  0  0  0  0
   -0.3788   -1.7276   -2.8187 H   0  0  0  0  0  0  0  0  0  0  0  0
    2.3161    5.0711   -0.6875 O   0  0  0  0  0  0  0  0  0  0  0  0
    1.4071    3.2975   -2.4895 H   0  0  0  0  0  0  0  0  0  0  0  0
    3.0849    3.8419    1.4343 H   0  0  0  0  0  0  0  0  0  0  0  0
    2.5812   -2.0407    1.5485 H   0  0  0  0  0  0  0  0  0  0  0  0
   -0.3139   -0.6655   -0.4563 H   0  0  0  0  0  0  0  0  0  0  0  0
   -0.3749    1.3888    1.6899 H   0  0  0  0  0  0  0  0  0  0  0  0
   -2.0073    2.0534    1.7724 H   0  0  0  0  0  0  0  0  0  0  0  0
   -1.5472    0.5982    2.7462 H   0  0  0  0  0  0  0  0  0  0  0  0
   -6.1489   -0.0689    2.1007 H   0  0  0  0  0  0  0  0  0  0  0  0
   -3.8386    0.6241    2.5038 H   0  0  0  0  0  0  0  0  0  0  0  0
    2.0128    5.3095   -1.5797 H   0  0  0  0  0  0  0  0  0  0  0  0
  1  8  1  0
  1 27  1  0
  2 25  2  0
  2 28  1  0
  3  2  1  0
  3  4  2  0
  3 29  1  0
  4 22  1  0
  5 30  1  0
  5 31  1  0
  6  5  1  0
  6 32  1  0
  6 33  1  0
  7 14  1  0
  7 18  1  0
  8 13  1  0
  8 14  2  0
  9 12  1  0
  9 34  1  0
 10 12  2  0
 10 11  1  0
 12 35  1  0
 13  9  2  0
 13 36  1  0
 14 10  1  0
 15  1  1  0
 15 17  1  0
 16 15  2  0
 17  7  2  0
 17 37  1  0
 18 19  2  0
 18 20  1  0
 20  6  1  0
 20 38  1  0
 21  4  1  0
 21  5  1  0
 22 26  2  0
 22 23  1  0
 23 24  1  0
 24 39  1  0
 24 40  1  0
 24 41  1  0
 25 26  1  0
 25 42  1  0
 26 43  1  0
 34 44  1  0
M  END
