N3R
     RDKit          3D

 43 45  0  0  0  0  0  0  0  0999 V2000
    3.1337    1.3810    1.9670 N   0  0  0  0  0  0  0  0  0  0  0  0
   -5.8085   -0.8786    0.0753 C   0  0  0  0  0  0  0  0  0  0  0  0
   -4.8324   -1.1223   -0.8868 C   0  0  0  0  0  0  0  0  0  0  0  0
   -3.5102   -0.7514   -0.6377 C   0  0  0  0  0  0  0  0  0  0  0  0
   -2.0365   -2.3161   -1.4776 C   0  0  0  0  0  0  0  0  0  0  0  0
   -0.5469   -2.2658   -1.8072 C   0  0  0  0  0  0  0  0  0  0  0  0
    2.1000   -0.4340    0.1246 C   0  0  0  0  0  0  0  0  0  0  0  0
    2.5913    1.8890    0.7799 C   0  0  0  0  0  0  0  0  0  0  0  0
    2.0703    3.7912   -0.6136 C   0  0  0  0  0  0  0  0  0  0  0  0
    1.5666    1.5506   -1.3631 C   0  0  0  0  0  0  0  0  0  0  0  0
    1.0809    0.7656   -2.3340 F   0  0  0  0  0  0  0  0  0  0  0  0
    1.5610    2.9283   -1.5822 C   0  0  0  0  0  0  0  0  0  0  0  0
    2.5911    3.2713    0.5705 C   0  0  0  0  0  0  0  0  0  0  0  0
    2.0673    1.0049   -0.1770 C   0  0  0  0  0  0  0  0  0  0  0  0
    3.2050    0.0482    2.2612 C   0  0  0  0  0  0  0  0  0  0  0  0
    3.6910   -0.3616    3.3094 O   0  0  0  0  0  0  0  0  0  0  0  0
    2.6470   -0.8856    1.2641 C   0  0  0  0  0  0  0  0  0  0  0  0
    1.5359   -1.4957   -0.7433 C   0  0  0  0  0  0  0  0  0  0  0  0
    2.2481   -2.3510   -1.2544 O   0  0  0  0  0  0  0  0  0  0  0  0
    0.1713   -1.4463   -0.8498 N   0  0  0  0  0  0  0  0  0  0  0  0
   -2.5735   -0.9882   -1.6112 O   0  0  0  0  0  0  0  0  0  0  0  0
   -3.1474   -0.0987    0.5499 C   0  0  0  0  0  0  0  0  0  0  0  0
   -1.8253    0.2495    0.6805 O   0  0  0  0  0  0  0  0  0  0  0  0
   -1.5086    1.1357    1.7494 C   0  0  0  0  0  0  0  0  0  0  0  0
   -5.4587   -0.2615    1.2751 C   0  0  0  0  0  0  0  0  0  0  0  0
   -4.1352    0.1276    1.5123 C   0  0  0  0  0  0  0  0  0  0  0  0
    3.5297    2.0027    2.6606 H   0  0  0  0  0  0  0  0  0  0  0  0
   -6.8398   -1.1681   -0.1089 H   0  0  0  0  0  0  0  0  0  0  0  0
   -5.0984   -1.5941   -1.8280 H   0  0  0  0  0  0  0  0  0  0  0  0
   -2.5537   -2.9649   -2.1932 H   0  0  0  0  0  0  0  0  0  0  0  0
   -2.1762   -2.7256   -0.4677 H   0  0  0  0  0  0  0  0  0  0  0  0
   -0.1184   -3.2731   -1.8110 H   0  0  0  0  0  0  0  0  0  0  0  0
   -0.3847   -1.8148   -2.7920 H   0  0  0  0  0  0  0  0  0  0  0  0
    2.0700    4.8649   -0.7867 H   0  0  0  0  0  0  0  0  0  0  0  0
    1.1616    3.3161   -2.5157 H   0  0  0  0  0  0  0  0  0  0  0  0
    2.9993    3.9483    1.3157 H   0  0  0  0  0  0  0  0  0  0  0  0
    2.6953   -1.9386    1.5173 H   0  0  0  0  0  0  0  0  0  0  0  0
   -0.3278   -0.6342   -0.4941 H   0  0  0  0  0  0  0  0  0  0  0  0
   -1.6187    0.6352    2.7174 H   0  0  0  0  0  0  0  0  0  0  0  0
   -2.1107    2.0495    1.7026 H   0  0  0  0  0  0  0  0  0  0  0  0
   -0.4596    1.4248    1.6451 H   0  0  0  0  0  0  0  0  0  0  0  0
   -6.2197   -0.0781    2.0300 H   0  0  0  0  0  0  0  0  0  0  0  0
   -3.9097    0.5976    2.4632 H   0  0  0  0  0  0  0  0  0  0  0  0
  1  8  1  0
  2 25  2  0
  3  2  1  0
  3  4  2  0
  4 22  1  0
  6  5  1  0
  7 14  1  0
  7 18  1  0
  8 13  1  0
  8 14  2  0
  9 12  1  0
 10 12  2  0
 10 11  1  0
 13  9  2  0
 14 10  1  0
 15  1  1  0
 15 17  1  0
 16 15  2  0
 17  7  2  0
 18 19  2  0
 18 20  1  0
 20  6  1  0
 21  4  1  0
 21  5  1  0
 22 26  2  0
 22 23  1  0
 23 24  1  0
 25 26  1  0
  1 27  1  0
  2 28  1  0
  3 29  1  0
  5 30  1  0
  5 31  1  0
  6 32  1  0
  6 33  1  0
  9 34  1  0
 12 35  1  0
 13 36  1  0
 17 37  1  0
 20 38  1  0
 24 39  1  0
 24 40  1  0
 24 41  1  0
 25 42  1  0
 26 43  1  0
M  END
